LAMMPS (12 Dec 2018)
# Lammps script to read in mBuild topologies and perform energy minimization
# Initialization
units           real
boundary        p p p
atom_style      full

# Assume ff info is included in data file
pair_style     lj/cut/coul/cut 14.0
bond_style  harmonic
angle_style harmonic
dihedral_style  opls
read_restart minimized.restart_*
  restoring atom style full from restart
  triclinic box = (-0.211046 -0.211046 -0.211046) to (40.191 40.191 40.191) with tilt (0 0 0)
  restoring pair style lj/cut/coul/cut from restart
  restoring bond style harmonic from restart
  restoring angle style harmonic from restart
  restoring dihedral style opls from restart
  900 atoms

pair_modify shift no

neighbor        2.5 bin #skin cutoff

timestep 2.0
thermo 2000
thermo_style custom step temp press pe epair emol ke etotal density

variable tsample equal 140.0
variable psample equal 1318.0/101.325
velocity all create 140.0 11
# ________________________________________________________________________________________

# Equilibrate npt box
variable startstep equal step
variable t equal temp
variable pressure equal press
variable e equal etotal
variable p equal pe
variable k equal ke
variable d equal density
variable startstep0 equal 200000
variable filename string eqlog200000.txt
fix integrator all npt temp 140 140 100.0 iso 13.007648655317 13.007648655317 1000.0 pchain 10
fix zeromom all momentum 100 linear 1 1 1 rescale
run 100000
  update every 1 steps, delay 10 steps, check yes
Step Temp Press PotEng E_pair E_mol KinEng TotEng Density
200000          140   -51.710035   -1302.0557   -1302.0557            0    375.16475   -926.89093   0.36355122
Loop time of 20.6244 on 36 procs for 100000 steps with 900 atoms

unfix integrator
write_restart minimized.restart_*
write_restart equilibrated_npt.restart
