LAMMPS (12 Dec 2018)
# Lammps script to read in mBuild topologies and perform energy minimization
# Initialization
units           real
boundary        p p p
atom_style      full

# Assume ff info is included in data file
pair_style     lj/cut/coul/cut 14.0
bond_style  none
angle_style none
dihedral_style  none
read_restart equilibrated_npt.restart
  restoring atom style full from restart
  triclinic box = (-0.223998 -0.223998 -0.223998) to (40.204 40.204 40.204) with tilt (0 0 0)
  restoring pair style lj/cut/coul/cut from restart
  restoring bond style harmonic from restart
  restoring angle style harmonic from restart
  restoring dihedral style opls from restart
  900 atoms

pair_modify shift no  #TODO: Look to make sure this shift is okay

neighbor        2.5 bin #skin cutoff

timestep 2.0
thermo 2000
thermo_style custom step temp press pe epair emol ke etotal density

variable tsample equal 140.0
variable psample equal 1318.0/101.325
# ________________________________________________________________________________________

# Production
variable startstep equal step
variable t equal temp
variable pressure equal press
variable e equal etotal
variable p equal pe
variable k equal ke
variable d equal density
variable filename string "prlog.txt"
dump traj1 all dcd 10000 prod.dcd
fix integrator all npt temp 140 140 100.0 iso 13.007648655317 13.007648655317 1000.0 pchain 10
fix zeromom all momentum 100 linear 1 1 1 rescale
run 3000000
  update every 1 steps, delay 10 steps, check yes
Step Temp Press PotEng E_pair E_mol KinEng TotEng Density
200000    139.57071   -12.371412   -1285.9138   -1285.9138            0    374.01436    -911.8994    0.3628528
Loop time of 610.068 on 36 procs for 3000000 steps with 900 atoms

unfix integrator
write_restart production.restart
undump traj1
